Circuit: * C:\Users\habel\git\DL0WH_BiTuner\Docs\09_Results\DL0WH_BiTuner_1V2_Rework_of_LogAmp\BiTuner_LogAmp.asc

Instance "m:u2:46": Length shorter than recommended for a level 1 MOSFET.
Instance "m:u2:45": Length shorter than recommended for a level 1 MOSFET.
Instance "m:u2:47": Length shorter than recommended for a level 1 MOSFET.
Instance "m:u2:44": Length shorter than recommended for a level 1 MOSFET.
Instance "m:u2:43": Length shorter than recommended for a level 1 MOSFET.
Instance "m:u2:42": Length shorter than recommended for a level 1 MOSFET.
Instance "m:u2:41": Length shorter than recommended for a level 1 MOSFET.
Instance "m:u2:22": Length shorter than recommended for a level 1 MOSFET.
Instance "m:u2:21": Length shorter than recommended for a level 1 MOSFET.
Instance "m:u2:17": Length shorter than recommended for a level 1 MOSFET.
Instance "m:u2:16": Length shorter than recommended for a level 1 MOSFET.
Instance "m:u2:23": Length shorter than recommended for a level 1 MOSFET.
Instance "m:u2:19": Length shorter than recommended for a level 1 MOSFET.
Instance "m:u2:18": Length shorter than recommended for a level 1 MOSFET.
Instance "m:u2:5": Length shorter than recommended for a level 1 MOSFET.
Instance "m:u2:4": Length shorter than recommended for a level 1 MOSFET.
Instance "m:u2:3": Length shorter than recommended for a level 1 MOSFET.
Instance "m:u2:2": Length shorter than recommended for a level 1 MOSFET.
Instance "m:u2:8": Length shorter than recommended for a level 1 MOSFET.
Instance "m:u2:1": Length shorter than recommended for a level 1 MOSFET.
Instance "m:u1:46": Length shorter than recommended for a level 1 MOSFET.
Instance "m:u1:45": Length shorter than recommended for a level 1 MOSFET.
Instance "m:u1:47": Length shorter than recommended for a level 1 MOSFET.
Instance "m:u1:44": Length shorter than recommended for a level 1 MOSFET.
Instance "m:u1:43": Length shorter than recommended for a level 1 MOSFET.
Instance "m:u1:42": Length shorter than recommended for a level 1 MOSFET.
Instance "m:u1:41": Length shorter than recommended for a level 1 MOSFET.
Instance "m:u1:22": Length shorter than recommended for a level 1 MOSFET.
Instance "m:u1:21": Length shorter than recommended for a level 1 MOSFET.
Instance "m:u1:17": Length shorter than recommended for a level 1 MOSFET.
Instance "m:u1:16": Length shorter than recommended for a level 1 MOSFET.
Instance "m:u1:23": Length shorter than recommended for a level 1 MOSFET.
Instance "m:u1:19": Length shorter than recommended for a level 1 MOSFET.
Instance "m:u1:18": Length shorter than recommended for a level 1 MOSFET.
Instance "m:u1:5": Length shorter than recommended for a level 1 MOSFET.
Instance "m:u1:4": Length shorter than recommended for a level 1 MOSFET.
Instance "m:u1:3": Length shorter than recommended for a level 1 MOSFET.
Instance "m:u1:2": Length shorter than recommended for a level 1 MOSFET.
Instance "m:u1:8": Length shorter than recommended for a level 1 MOSFET.
Instance "m:u1:1": Length shorter than recommended for a level 1 MOSFET.
Direct Newton iteration failed to find .op point.  (Use ".option noopiter" to skip.)
Starting Gmin stepping
Gmin = 10
Gmin = 1.07374
vernier = 0.5
vernier = 0.25
vernier = 0.125
vernier = 0.0625
Gmin = 1.2061
vernier = 0.03125
vernier = 0.015625
vernier = 0.0078125
vernier = 0.00390625
vernier = 0.00195313
vernier = 0.000976563
vernier = 0.000488281
Gmin = 1.19675
Gmin = 0
Gmin stepping failed

Starting source stepping with srcstepmethod=0
Source Step = 3.0303%
Source Step = 33.3333%
Source Step = 63.6364%
Source Step = 93.9394%
vernier = 0.25
Source Step = 90.9268%
Source Step = 90.9564%
Source Step = 90.986%
Source Step = 91.0156%
Source Step = 91.0452%
vernier = 0.00146484
Source Step = 91.0763%
Source Step = 91.1207%
Source Step = 91.1651%
Source Step = 91.2095%
Source Step = 91.2538%
Source Step = 91.2982%
vernier = 0.00219727
Source Step = 91.3648%
Source Step = 91.4314%
Source Step = 91.498%
Source Step = 91.5646%
Source Step = 91.6312%
vernier = 0.0032959
Source Step = 91.7277%
Source Step = 91.8276%
Source Step = 91.9275%
Source Step = 92.0273%
Source Step = 92.1272%
vernier = 0.00494385
Source Step = 92.267%
Source Step = 92.4168%
Source Step = 92.5667%
Source Step = 92.7165%
Source Step = 92.8663%
vernier = 0.00741577
Source Step = 93.0685%
Source Step = 93.2933%
Source Step = 93.518%
Source Step = 93.7427%
Source Step = 93.9674%
vernier = 0.0111237
Source Step = 94.2596%
Source Step = 94.5966%
Source Step = 94.9337%
Source Step = 95.2708%
Source Step = 95.6079%
vernier = 0.0166855
Source Step = 96.0292%
Source Step = 96.5348%
Source Step = 97.0405%
Source Step = 97.5461%
Source Step = 98.0517%
vernier = 0.0250282
Source Step = 98.6585%
Source Step = 99.4169%
Source stepping succeeded in finding the operating point.


Date: Mon Feb 11 10:09:11 2019
Total elapsed time: 1.612 seconds.

tnom = 27
temp = 27
method = modified trap
totiter = 8015
traniter = 3101
tranpoints = 1202
accept = 1143
rejected = 59
matrix size = 237
fillins = 612
solver = Normal
Thread vector: 17.2/8.9[4] 9.2/5.0[4] 3.1/3.6[1] 1.5/2.0[1]  2592/500
Matrix Compiler1: 32.69 KB object code size  9.7/3.6/[2.0]
Matrix Compiler2: 31.50 KB object code size  4.1/5.2/[1.7]

