Circuit: * C:\Users\habel\git\DL0WH_BiTuner\Docs\09_Results\DL0WH_BiTuner_1V2_Rework_of_LogAmp\BiTuner_LogAmp.asc

Instance "m:u2:46": Length shorter than recommended for a level 1 MOSFET.
Instance "m:u2:45": Length shorter than recommended for a level 1 MOSFET.
Instance "m:u2:47": Length shorter than recommended for a level 1 MOSFET.
Instance "m:u2:44": Length shorter than recommended for a level 1 MOSFET.
Instance "m:u2:43": Length shorter than recommended for a level 1 MOSFET.
Instance "m:u2:42": Length shorter than recommended for a level 1 MOSFET.
Instance "m:u2:41": Length shorter than recommended for a level 1 MOSFET.
Instance "m:u2:22": Length shorter than recommended for a level 1 MOSFET.
Instance "m:u2:21": Length shorter than recommended for a level 1 MOSFET.
Instance "m:u2:17": Length shorter than recommended for a level 1 MOSFET.
Instance "m:u2:16": Length shorter than recommended for a level 1 MOSFET.
Instance "m:u2:23": Length shorter than recommended for a level 1 MOSFET.
Instance "m:u2:19": Length shorter than recommended for a level 1 MOSFET.
Instance "m:u2:18": Length shorter than recommended for a level 1 MOSFET.
Instance "m:u2:5": Length shorter than recommended for a level 1 MOSFET.
Instance "m:u2:4": Length shorter than recommended for a level 1 MOSFET.
Instance "m:u2:3": Length shorter than recommended for a level 1 MOSFET.
Instance "m:u2:2": Length shorter than recommended for a level 1 MOSFET.
Instance "m:u2:8": Length shorter than recommended for a level 1 MOSFET.
Instance "m:u2:1": Length shorter than recommended for a level 1 MOSFET.
Instance "m:u1:46": Length shorter than recommended for a level 1 MOSFET.
Instance "m:u1:45": Length shorter than recommended for a level 1 MOSFET.
Instance "m:u1:47": Length shorter than recommended for a level 1 MOSFET.
Instance "m:u1:44": Length shorter than recommended for a level 1 MOSFET.
Instance "m:u1:43": Length shorter than recommended for a level 1 MOSFET.
Instance "m:u1:42": Length shorter than recommended for a level 1 MOSFET.
Instance "m:u1:41": Length shorter than recommended for a level 1 MOSFET.
Instance "m:u1:22": Length shorter than recommended for a level 1 MOSFET.
Instance "m:u1:21": Length shorter than recommended for a level 1 MOSFET.
Instance "m:u1:17": Length shorter than recommended for a level 1 MOSFET.
Instance "m:u1:16": Length shorter than recommended for a level 1 MOSFET.
Instance "m:u1:23": Length shorter than recommended for a level 1 MOSFET.
Instance "m:u1:19": Length shorter than recommended for a level 1 MOSFET.
Instance "m:u1:18": Length shorter than recommended for a level 1 MOSFET.
Instance "m:u1:5": Length shorter than recommended for a level 1 MOSFET.
Instance "m:u1:4": Length shorter than recommended for a level 1 MOSFET.
Instance "m:u1:3": Length shorter than recommended for a level 1 MOSFET.
Instance "m:u1:2": Length shorter than recommended for a level 1 MOSFET.
Instance "m:u1:8": Length shorter than recommended for a level 1 MOSFET.
Instance "m:u1:1": Length shorter than recommended for a level 1 MOSFET.
Direct Newton iteration failed to find .op point.  (Use ".option noopiter" to skip.)
Starting Gmin stepping
Gmin = 10
Gmin = 1.07374
vernier = 0.5
vernier = 0.25
vernier = 0.125
vernier = 0.0625
vernier = 0.03125
Gmin = 1.26323
vernier = 0.015625
vernier = 0.0078125
Gmin = 1.215
vernier = 0.00390625
vernier = 0.00195313
vernier = 0.000976563
vernier = 0.000488281
Gmin = 0
Gmin stepping failed

Starting source stepping with srcstepmethod=0
Source Step = 3.0303%
Source Step = 33.3333%
Source Step = 63.6364%
Source Step = 88.6364%
vernier = 0.0625
Source Step = 87.8995%
Source Step = 87.9291%
Source Step = 87.9587%
Source Step = 87.9883%
Source Step = 88.0179%
vernier = 0.00146484
Source Step = 88.0534%
Source Step = 88.0978%
Source Step = 88.1422%
Source Step = 88.1866%
Source Step = 88.2309%
vernier = 0.00219727
Source Step = 88.282%
Source Step = 88.3486%
Source Step = 88.4152%
Source Step = 88.4817%
Source Step = 88.5483%
vernier = 0.0032959
Source Step = 88.6216%
Source Step = 88.7214%
Source Step = 88.8213%
Source Step = 88.9212%
Source Step = 89.0211%
vernier = 0.00494385
Source Step = 89.1259%
Source Step = 89.2758%
Source Step = 89.4256%
Source Step = 89.5754%
Source Step = 89.7252%
Source Step = 89.875%
vernier = 0.00741577
Source Step = 90.0604%
Source Step = 90.1166%
Source Step = 90.1728%
Source Step = 90.2289%
Source Step = 90.2851%
Source Step = 90.3413%
vernier = 0.00278091
Source Step = 90.4256%
Source Step = 90.5098%
Source Step = 90.5941%
Source Step = 90.6784%
Source Step = 90.7627%
vernier = 0.00417137
Source Step = 90.8848%
Source Step = 91.0112%
Source Step = 91.1377%
Source Step = 91.2641%
Source Step = 91.3905%
vernier = 0.00625706
Source Step = 91.5674%
Source Step = 91.757%
Source Step = 91.9466%
Source Step = 92.1363%
Source Step = 92.3259%
vernier = 0.00938559
Source Step = 92.5818%
Source Step = 92.8662%
Source Step = 93.1507%
Source Step = 93.4351%
Source Step = 93.7195%
vernier = 0.0140784
Source Step = 94.0892%
Source Step = 94.5158%
Source Step = 94.9425%
Source Step = 95.3691%
Source Step = 95.7957%
vernier = 0.0211176
Source Step = 96.329%
Source Step = 96.9689%
Source Step = 97.6088%
Source Step = 98.2487%
Source Step = 98.8887%
vernier = 0.0316764
Source Step = 99.6566%
Source stepping succeeded in finding the operating point.

.step temp=10°C
.step temp=30°C
.step temp=50°C

Date: Mon Feb 11 13:32:37 2019
Total elapsed time: 5.547 seconds.

tnom = 27
temp = 50
method = modified trap
totiter = 5477
traniter = 2664
tranpoints = 1128
accept = 1092
rejected = 36
matrix size = 237
fillins = 570
solver = Normal
Thread vector: 18.2/9.9[4] 8.6/4.4[4] 4.5/3.0[4] 1.6/1.9[1]  2592/500
Matrix Compiler1: 27.57 KB object code size  8.7/3.2/[1.7]
Matrix Compiler2: 31.16 KB object code size  5.6/5.5/[1.8]

